Version 4
SHEET 1 1360 680
WIRE 400 64 272 64
WIRE 400 80 400 64
WIRE 272 144 272 64
WIRE 272 144 240 144
WIRE 128 160 0 160
WIRE 0 176 0 160
WIRE 400 176 400 160
WIRE 400 176 240 176
WIRE 400 192 400 176
WIRE 320 208 240 208
WIRE 320 224 320 208
WIRE 0 272 0 256
WIRE 320 320 320 304
FLAG 400 192 0
FLAG 320 320 0
FLAG 0 272 0
FLAG 0 160 Speed
SYMBOL dc_motor 176 176 R0
SYMATTR InstName X1
SYMBOL voltage 400 64 R0
WINDOW 123 0 0 Left 2
WINDOW 39 0 0 Left 2
SYMATTR InstName V1
SYMATTR Value PWL(0 0 1m 13.8 190m 13.8 191m 0)
SYMBOL current 320 224 R0
WINDOW 123 0 0 Left 2
WINDOW 39 0 0 Left 2
SYMATTR InstName I1
SYMATTR Value PULSE(0 0.2 50M 10M 10M 30M 100M 1)
SYMBOL res -16 160 R0
SYMATTR InstName R1
SYMATTR Value 1Meg
TEXT 120 296 Left 2 !.TRAN 0.2
TEXT 464 120 Left 2 ;For PWM modulation use: PULSE(0 13.8 400u 10n 10n 433u 833u 150)
TEXT 368 256 Left 2 ;Mechanical load on motor, in units of Newton-meters
TEXT -8 16 Left 2 ;enc output is either shaft speed in Radians/S or
TEXT -8 40 Left 2 ;simulated pulses from a shaft encoder.  See motor model schematic.
